Styrene


  8  8  0  0  0  0  0  0  0  0999 V2000
   54.4153   40.0571   15.0520 C   0  0  0  0  0  0  0  0  0  0  0  0
   55.0391   40.7459   14.0039 C   0  0  0  0  0  0  0  0  0  0  0  0
   54.5814   40.6123   12.6897 C   0  0  0  0  0  0  0  0  0  0  0  0
   53.4886   39.7948   12.4120 C   0  0  0  0  0  0  0  0  0  0  0  0
   52.8489   39.1164   13.4462 C   0  0  0  0  0  0  0  0  0  0  0  0
   53.3069   39.2514   14.7599 C   0  0  0  0  0  0  0  0  0  0  0  0
   55.4837   41.2587   16.9507 C   0  0  0  0  0  0  0  0  0  0  0  0
   54.8431   40.1934   16.4513 C   0  0  0  0  0  0  0  0  0  0  0  0
  3  4  2  0
  3  2  1  0
  4  5  1  0
  2  1  2  0
  5  6  2  0
  1  6  1  0
  1  8  1  0
  8  7  2  0
M  END
> <minimizedAffinity>
-5.30352

> <CNNscore>
0.9393334985

> <CNNaffinity>
3.8138427734

> <CNN_VS>
3.5824701786

> <CNNaffinity_variance>
0.4836853445

$$$$
Styrene


  8  8  0  0  0  0  0  0  0  0999 V2000
   53.0718   39.4950   12.7791 C   0  0  0  0  0  0  0  0  0  0  0  0
   52.9118   39.0808   14.1076 C   0  0  0  0  0  0  0  0  0  0  0  0
   53.7844   39.5271   15.1044 C   0  0  0  0  0  0  0  0  0  0  0  0
   54.8210   40.4002   14.7836 C   0  0  0  0  0  0  0  0  0  0  0  0
   54.9825   40.8326   13.4698 C   0  0  0  0  0  0  0  0  0  0  0  0
   54.1089   40.3864   12.4741 C   0  0  0  0  0  0  0  0  0  0  0  0
   52.5331   38.4094   10.6061 C   0  0  0  0  0  0  0  0  0  0  0  0
   52.1591   39.0762   11.7061 C   0  0  0  0  0  0  0  0  0  0  0  0
  3  4  2  0
  3  2  1  0
  4  5  1  0
  2  1  2  0
  5  6  2  0
  1  6  1  0
  1  8  1  0
  8  7  2  0
M  END
> <minimizedAffinity>
-4.66048

> <CNNscore>
0.8455740213

> <CNNaffinity>
3.5570201874

> <CNN_VS>
3.0077238083

> <CNNaffinity_variance>
0.5393727422

$$$$
Styrene


  8  8  0  0  0  0  0  0  0  0999 V2000
   15.4820   14.8390   33.6858 C   0  0  0  0  0  0  0  0  0  0  0  0
   15.2283   16.1175   33.1728 C   0  0  0  0  0  0  0  0  0  0  0  0
   16.2453   16.8553   32.5598 C   0  0  0  0  0  0  0  0  0  0  0  0
   17.5248   16.3174   32.4455 C   0  0  0  0  0  0  0  0  0  0  0  0
   17.7874   15.0413   32.9369 C   0  0  0  0  0  0  0  0  0  0  0  0
   16.7697   14.3042   33.5489 C   0  0  0  0  0  0  0  0  0  0  0  0
   14.1092   12.7771   33.9189 C   0  0  0  0  0  0  0  0  0  0  0  0
   14.4356   14.0165   34.3088 C   0  0  0  0  0  0  0  0  0  0  0  0
  3  4  2  0
  3  2  1  0
  4  5  1  0
  2  1  2  0
  5  6  2  0
  1  6  1  0
  1  8  1  0
  8  7  2  0
M  END
> <minimizedAffinity>
-4.44875

> <CNNscore>
0.8363001347

> <CNNaffinity>
3.7576863766

> <CNN_VS>
3.1425535679

> <CNNaffinity_variance>
0.3194263279

$$$$
Styrene


  8  8  0  0  0  0  0  0  0  0999 V2000
    5.0277   -4.3300   33.5934 C   0  0  0  0  0  0  0  0  0  0  0  0
    5.5869   -4.5262   34.8626 C   0  0  0  0  0  0  0  0  0  0  0  0
    4.8532   -5.1476   35.8775 C   0  0  0  0  0  0  0  0  0  0  0  0
    3.5551   -5.5874   35.6300 C   0  0  0  0  0  0  0  0  0  0  0  0
    2.9921   -5.4130   34.3684 C   0  0  0  0  0  0  0  0  0  0  0  0
    3.7268   -4.7924   33.3541 C   0  0  0  0  0  0  0  0  0  0  0  0
    5.3621   -2.6385   31.7996 C   0  0  0  0  0  0  0  0  0  0  0  0
    5.7738   -3.7108   32.4891 C   0  0  0  0  0  0  0  0  0  0  0  0
  3  4  2  0
  3  2  1  0
  4  5  1  0
  2  1  2  0
  5  6  2  0
  1  6  1  0
  1  8  1  0
  8  7  2  0
M  END
> <minimizedAffinity>
-6.52024

> <CNNscore>
0.7838062048

> <CNNaffinity>
4.6997904778

> <CNN_VS>
3.6837248802

> <CNNaffinity_variance>
0.0934841037

$$$$
Styrene


  8  8  0  0  0  0  0  0  0  0999 V2000
   -2.1922  -27.7772   21.9349 C   0  0  0  0  0  0  0  0  0  0  0  0
   -3.4650  -27.3931   22.3761 C   0  0  0  0  0  0  0  0  0  0  0  0
   -3.8450  -26.0477   22.3746 C   0  0  0  0  0  0  0  0  0  0  0  0
   -2.9582  -25.0735   21.9228 C   0  0  0  0  0  0  0  0  0  0  0  0
   -1.6954  -25.4425   21.4666 C   0  0  0  0  0  0  0  0  0  0  0  0
   -1.3168  -26.7880   21.4678 C   0  0  0  0  0  0  0  0  0  0  0  0
   -1.8447  -29.9679   20.8076 C   0  0  0  0  0  0  0  0  0  0  0  0
   -1.7632  -29.1820   21.8895 C   0  0  0  0  0  0  0  0  0  0  0  0
  3  4  2  0
  3  2  1  0
  4  5  1  0
  2  1  2  0
  5  6  2  0
  1  6  1  0
  1  8  1  0
  8  7  2  0
M  END
> <minimizedAffinity>
-5.33456

> <CNNscore>
0.7692111731

> <CNNaffinity>
3.6972281933

> <CNN_VS>
2.8439493179

> <CNNaffinity_variance>
0.1300294548

$$$$
Styrene


  8  8  0  0  0  0  0  0  0  0999 V2000
   12.0300   17.8887   24.6640 C   0  0  0  0  0  0  0  0  0  0  0  0
   12.8118   16.9296   25.3205 C   0  0  0  0  0  0  0  0  0  0  0  0
   14.2074   17.0089   25.2974 C   0  0  0  0  0  0  0  0  0  0  0  0
   14.8351   18.0544   24.6246 C   0  0  0  0  0  0  0  0  0  0  0  0
   14.0701   19.0237   23.9808 C   0  0  0  0  0  0  0  0  0  0  0  0
   12.6749   18.9439   24.0052 C   0  0  0  0  0  0  0  0  0  0  0  0
    9.7727   18.5304   23.8374 C   0  0  0  0  0  0  0  0  0  0  0  0
   10.5609   17.8617   24.6896 C   0  0  0  0  0  0  0  0  0  0  0  0
  3  4  2  0
  3  2  1  0
  4  5  1  0
  2  1  2  0
  5  6  2  0
  1  6  1  0
  1  8  1  0
  8  7  2  0
M  END
> <minimizedAffinity>
-5.07729

> <CNNscore>
0.7628578544

> <CNNaffinity>
3.2962253094

> <CNN_VS>
2.5145514011

> <CNNaffinity_variance>
0.5247550607

$$$$
Styrene


  8  8  0  0  0  0  0  0  0  0999 V2000
    5.4005   -4.4230   33.3606 C   0  0  0  0  0  0  0  0  0  0  0  0
    5.9267   -5.7211   33.3519 C   0  0  0  0  0  0  0  0  0  0  0  0
    6.3557   -6.3253   34.5374 C   0  0  0  0  0  0  0  0  0  0  0  0
    6.2540   -5.6399   35.7455 C   0  0  0  0  0  0  0  0  0  0  0  0
    5.7184   -4.3548   35.7712 C   0  0  0  0  0  0  0  0  0  0  0  0
    5.2890   -3.7520   34.5855 C   0  0  0  0  0  0  0  0  0  0  0  0
    5.3234   -2.5662   31.7063 C   0  0  0  0  0  0  0  0  0  0  0  0
    4.9084   -3.7625   32.1435 C   0  0  0  0  0  0  0  0  0  0  0  0
  3  4  2  0
  3  2  1  0
  4  5  1  0
  2  1  2  0
  5  6  2  0
  1  6  1  0
  1  8  1  0
  8  7  2  0
M  END
> <minimizedAffinity>
-6.63408

> <CNNscore>
0.7535553575

> <CNNaffinity>
4.4717164040

> <CNN_VS>
3.3696858883

> <CNNaffinity_variance>
0.0713297948

$$$$
Styrene


  8  8  0  0  0  0  0  0  0  0999 V2000
   15.6879   14.5500   34.6385 C   0  0  0  0  0  0  0  0  0  0  0  0
   15.8590   15.1388   35.8980 C   0  0  0  0  0  0  0  0  0  0  0  0
   17.1141   15.6003   36.3056 C   0  0  0  0  0  0  0  0  0  0  0  0
   18.2095   15.4857   35.4531 C   0  0  0  0  0  0  0  0  0  0  0  0
   18.0508   14.9168   34.1921 C   0  0  0  0  0  0  0  0  0  0  0  0
   16.7953   14.4564   33.7852 C   0  0  0  0  0  0  0  0  0  0  0  0
   14.0761   12.7997   33.9113 C   0  0  0  0  0  0  0  0  0  0  0  0
   14.3811   14.0807   34.1574 C   0  0  0  0  0  0  0  0  0  0  0  0
  3  4  2  0
  3  2  1  0
  4  5  1  0
  2  1  2  0
  5  6  2  0
  1  6  1  0
  1  8  1  0
  8  7  2  0
M  END
> <minimizedAffinity>
-4.50167

> <CNNscore>
0.7496949434

> <CNNaffinity>
3.3987319469

> <CNN_VS>
2.5480122566

> <CNNaffinity_variance>
0.3582149744

$$$$
Styrene


  8  8  0  0  0  0  0  0  0  0999 V2000
   -3.4667  -26.0452   21.9388 C   0  0  0  0  0  0  0  0  0  0  0  0
   -3.6853  -27.3915   22.2581 C   0  0  0  0  0  0  0  0  0  0  0  0
   -2.6505  -28.3260   22.1571 C   0  0  0  0  0  0  0  0  0  0  0  0
   -1.3834  -27.9213   21.7444 C   0  0  0  0  0  0  0  0  0  0  0  0
   -1.1477  -26.5833   21.4388 C   0  0  0  0  0  0  0  0  0  0  0  0
   -2.1828  -25.6496   21.5409 C   0  0  0  0  0  0  0  0  0  0  0  0
   -5.4875  -24.8196   21.1613 C   0  0  0  0  0  0  0  0  0  0  0  0
   -4.5166  -25.0243   22.0613 C   0  0  0  0  0  0  0  0  0  0  0  0
  3  4  2  0
  3  2  1  0
  4  5  1  0
  2  1  2  0
  5  6  2  0
  1  6  1  0
  1  8  1  0
  8  7  2  0
M  END
> <minimizedAffinity>
-4.61764

> <CNNscore>
0.7459507585

> <CNNaffinity>
3.8832635880

> <CNN_VS>
2.8967235088

> <CNNaffinity_variance>
0.0940468311

$$$$
